Version 4
SHEET 1 3188 2112
WIRE -1040 336 -1040 304
WIRE -736 336 -736 304
WIRE -608 336 -608 304
WIRE -496 336 -496 304
WIRE -400 336 -400 304
WIRE -1040 480 -1040 416
WIRE -736 528 -736 416
WIRE -608 528 -608 416
WIRE -608 528 -736 528
WIRE -496 528 -496 416
WIRE -496 528 -608 528
WIRE -400 528 -400 416
WIRE -400 528 -496 528
WIRE -496 576 -496 528
WIRE -320 816 -624 816
WIRE -1328 832 -1328 800
WIRE -1328 832 -1392 832
WIRE -1392 848 -1392 832
WIRE -624 864 -624 816
WIRE -320 896 -320 816
WIRE -176 896 -320 896
WIRE -544 912 -576 912
WIRE -1392 928 -1392 912
WIRE -1328 928 -1328 912
WIRE -1328 928 -1392 928
WIRE -1040 928 -1328 928
WIRE -1024 928 -1040 928
WIRE -864 928 -960 928
WIRE -848 928 -864 928
WIRE -672 928 -768 928
WIRE -1328 960 -1328 928
WIRE -1616 1008 -1744 1008
WIRE -1456 1008 -1552 1008
WIRE -1376 1008 -1456 1008
WIRE -864 1008 -864 928
WIRE -656 1008 -656 976
WIRE -176 1008 -176 896
WIRE -1456 1024 -1456 1008
WIRE -464 1040 -464 912
WIRE -464 1040 -480 1040
WIRE 128 1040 -64 1040
WIRE 560 1040 128 1040
WIRE 576 1040 560 1040
WIRE -1040 1072 -1040 928
WIRE -176 1088 -352 1088
WIRE -1456 1104 -1536 1104
WIRE -1440 1104 -1456 1104
WIRE -1360 1104 -1360 1056
WIRE -864 1104 -864 1088
WIRE -832 1104 -864 1104
WIRE -656 1104 -656 1088
WIRE -656 1104 -688 1104
WIRE -656 1120 -656 1104
WIRE 0 1120 -64 1120
WIRE -864 1136 -864 1104
WIRE -1360 1152 -1360 1104
WIRE 576 1152 576 1040
WIRE -1680 1200 -1712 1200
WIRE -1616 1200 -1616 1104
WIRE -1616 1200 -1680 1200
WIRE -1456 1200 -1456 1184
WIRE -1456 1200 -1552 1200
WIRE -1376 1200 -1456 1200
WIRE -1680 1216 -1680 1200
WIRE -656 1232 -656 1200
WIRE -1328 1280 -1328 1248
WIRE -1232 1280 -1328 1280
WIRE -1040 1280 -1040 1136
WIRE -1040 1280 -1232 1280
WIRE -1024 1280 -1040 1280
WIRE -864 1280 -864 1216
WIRE -864 1280 -960 1280
WIRE -848 1280 -864 1280
WIRE -672 1280 -768 1280
WIRE -1328 1296 -1328 1280
WIRE -544 1296 -576 1296
WIRE -464 1296 -464 1040
WIRE -176 1296 -176 1168
WIRE -176 1296 -288 1296
WIRE -64 1296 -64 1200
WIRE 576 1296 576 1232
WIRE 576 1296 -64 1296
WIRE -1232 1312 -1232 1280
WIRE -1680 1328 -1680 1296
WIRE -64 1328 -64 1296
WIRE -624 1376 -624 1344
WIRE -288 1376 -288 1296
WIRE -288 1376 -624 1376
WIRE -1328 1392 -1328 1376
WIRE -1232 1392 -1232 1376
WIRE -1232 1392 -1328 1392
WIRE -1328 1408 -1328 1392
WIRE -1712 1536 -1712 1200
WIRE -1312 1536 -1712 1536
WIRE -1120 1536 -1232 1536
WIRE 128 1536 128 1040
FLAG -1040 304 EQ
IOPIN -1040 304 Out
FLAG -1040 480 0
FLAG -480 1040 B
IOPIN -480 1040 In
FLAG -352 1088 A
IOPIN -352 1088 In
FLAG -736 304 A
IOPIN -736 304 Out
FLAG -608 304 B
IOPIN -608 304 Out
FLAG -496 304 C
IOPIN -496 304 Out
FLAG -400 304 VBIAS
IOPIN -400 304 Out
FLAG -496 576 0
FLAG -832 1104 VBIAS
IOPIN -832 1104 In
FLAG -688 1104 0
FLAG -1744 1008 EQ
IOPIN -1744 1008 In
FLAG -1328 800 C
IOPIN -1328 800 In
FLAG -1328 1408 C
IOPIN -1328 1408 In
FLAG -1680 1328 0
FLAG 560 1040 SPEAKER
FLAG -64 1328 0
SYMBOL voltage -1040 320 R0
WINDOW 3 24 38 Left 2
SYMATTR InstName V5
SYMATTR Value wavefile=sin_440.wav
SYMBOL res -448 896 R90
WINDOW 0 0 56 VBottom 2
WINDOW 3 32 56 VTop 2
SYMATTR InstName R2
SYMATTR Value 1K
SYMBOL res -448 1280 R90
WINDOW 0 0 56 VBottom 2
WINDOW 3 32 56 VTop 2
SYMATTR InstName R9
SYMATTR Value 1K
SYMBOL res -752 912 R90
WINDOW 0 0 56 VBottom 2
WINDOW 3 32 56 VTop 2
SYMATTR InstName R10
SYMATTR Value 1.5K
SYMBOL res -752 1264 R90
WINDOW 0 0 56 VBottom 2
WINDOW 3 32 56 VTop 2
SYMATTR InstName R11
SYMATTR Value 1.5K
SYMBOL res -880 992 R0
SYMATTR InstName R12
SYMATTR Value 220K
SYMBOL res -880 1120 R0
SYMATTR InstName R13
SYMATTR Value 220K
SYMBOL Misc/triode -1328 1008 R0
SYMATTR InstName U5
SYMATTR Value NH12AX7
SYMBOL Misc/triode -1328 1200 M180
SYMATTR InstName U6
SYMATTR Value NH12AX7
SYMBOL voltage -736 320 R0
WINDOW 0 38 66 Left 0
WINDOW 123 0 0 Left 0
WINDOW 39 24 132 Left 0
SYMATTR InstName VHT1
SYMATTR Value 310
SYMBOL voltage -608 320 R0
SYMATTR InstName V1
SYMATTR Value 305
SYMATTR SpiceLine Rser=0
SYMBOL voltage -496 320 R0
SYMATTR InstName V2
SYMATTR Value 300
SYMATTR SpiceLine Rser=0
SYMBOL voltage -400 432 R180
WINDOW 0 24 96 Left 2
WINDOW 3 24 16 Left 2
SYMATTR InstName V3
SYMATTR Value 13.25
SYMATTR SpiceLine Rser=0
SYMBOL Misc/tetrode -624 912 R0
SYMATTR InstName U7
SYMATTR Value 6BQ5
SYMBOL Misc/tetrode -624 1296 M180
SYMATTR InstName U8
SYMATTR Value 6BQ5
SYMBOL cap -960 912 R90
WINDOW 0 0 32 VBottom 2
WINDOW 3 32 32 VTop 2
SYMATTR InstName C19
SYMATTR Value 47nF
SYMBOL cap -960 1264 R90
WINDOW 0 0 32 VBottom 2
WINDOW 3 32 32 VTop 2
SYMATTR InstName C20
SYMATTR Value 47nF
SYMBOL res -1344 816 R0
SYMATTR InstName R23
SYMATTR Value 82K
SYMBOL res -1344 1280 R0
SYMATTR InstName R24
SYMATTR Value 91K
SYMBOL res -1344 1088 R90
WINDOW 0 0 56 VBottom 2
WINDOW 3 32 56 VTop 2
SYMATTR InstName R37
SYMATTR Value 470
SYMBOL res -1440 1120 R180
WINDOW 0 36 76 Left 2
WINDOW 3 36 40 Left 2
SYMATTR InstName R38
SYMATTR Value 1Meg
SYMBOL res -1440 1200 R180
WINDOW 0 36 76 Left 2
WINDOW 3 36 40 Left 2
SYMATTR InstName R39
SYMATTR Value 1Meg
SYMBOL res -1520 1088 R90
WINDOW 0 0 56 VBottom 2
WINDOW 3 32 56 VTop 2
SYMATTR InstName R40
SYMATTR Value 10K
SYMBOL cap -1552 1184 R90
WINDOW 0 0 32 VBottom 2
WINDOW 3 32 32 VTop 2
SYMATTR InstName C21
SYMATTR Value 100nF
SYMBOL cap -1552 992 R90
WINDOW 0 0 32 VBottom 2
WINDOW 3 32 32 VTop 2
SYMATTR InstName C22
SYMATTR Value 0.02µF
SYMBOL res -1696 1200 R0
SYMATTR InstName R41
SYMATTR Value 10K
SYMBOL res -1216 1520 R90
WINDOW 0 0 56 VBottom 2
WINDOW 3 32 56 VTop 2
SYMATTR InstName R42
SYMATTR Value 22K
SYMBOL cap -1056 1072 R0
SYMATTR InstName C3
SYMATTR Value 75pF
SYMBOL cap -1408 848 R0
SYMATTR InstName C4
SYMATTR Value 120pF
SYMBOL cap -1248 1312 R0
SYMATTR InstName C5
SYMATTR Value 120pF
SYMBOL ind2 -192 1072 R0
WINDOW 0 -40 42 Left 2
WINDOW 3 -53 85 Left 2
SYMATTR InstName L1
SYMATTR Value 10.5
SYMATTR Type ind
SYMATTR SpiceLine Ipk=.135 Rser=25 Rpar=50k Cpar=50p
SYMBOL ind2 -48 1216 R180
WINDOW 0 -41 81 Left 2
WINDOW 3 -48 36 Left 2
SYMATTR InstName L2
SYMATTR Value 0.048
SYMATTR Type ind
SYMBOL res 560 1136 R0
SYMATTR InstName R14
SYMATTR Value 8
SYMBOL ind2 -48 1136 R180
WINDOW 0 -41 82 Left 2
WINDOW 3 -56 43 Left 2
SYMATTR InstName L3
SYMATTR Value 0.008
SYMATTR Type ind
SYMBOL ind2 -48 1056 R180
WINDOW 0 -47 79 Left 2
WINDOW 3 -55 35 Left 2
SYMATTR InstName L7
SYMATTR Value 0.016
SYMATTR Type ind
SYMBOL ind2 -192 992 R0
WINDOW 0 -37 29 Left 2
WINDOW 3 -51 76 Left 2
SYMATTR InstName L8
SYMATTR Value 10.5
SYMATTR Type ind
SYMATTR SpiceLine Ipk=.135 Rser=25 Rpar=50k Cpar=50p
SYMBOL cap -1056 1520 R90
WINDOW 0 0 32 VBottom 2
WINDOW 3 32 32 VTop 2
SYMATTR InstName C1
SYMATTR Value 100nF
SYMBOL res -640 1104 R180
WINDOW 0 36 76 Left 2
WINDOW 3 36 40 Left 2
SYMATTR InstName R1
SYMATTR Value 1
SYMBOL res -640 1216 R180
WINDOW 0 36 76 Left 2
WINDOW 3 36 40 Left 2
SYMATTR InstName R3
SYMATTR Value 1
TEXT -1224 312 Left 0 !.INC 6bq5.inc
TEXT -1224 352 Left 0 !.INC dmtriodep.inc
TEXT -1224 424 Left 0 !.tran 3s
TEXT -1224 384 Left 0 !;op
TEXT -1224 280 Left 2 !.INC 6l6.inc
TEXT -120 1264 VLeft 2 !K4 L1 L8 L2 L3 L7 0.9999
TEXT -240 1312 Left 2 ;Anode
TEXT -240 880 Left 2 ;Anode
TEXT -1208 592 Left 2 !.wavefile ./out.wav 16 44.1k v(speaker)
LINE Normal -144 1312 -144 832 2
LINE Normal -96 1312 -96 832 2
